Circuit: * C:\Users\mlana\OneDrive\Documents\Amateur Radio\RemoteHF\Simulations\Draft2.asc


Date: Mon Nov 06 19:56:55 2023
Total elapsed time: 0.019 seconds.

tnom = 27
temp = 27
method = trap
totiter = 0
traniter = 0
tranpoints = 0
accept = 0
rejected = 0
matrix size = 6
fillins = 0
solver = Normal

