Circuit: * C:\Users\mlana\OneDrive\Documents\Amateur Radio\RemoteHF\Simulations\Draft1.asc

WARNING: Specified period is not longer than the sum of Trise, Tfall, and Ton for v1.  Increasing period to 0.015
.OP point found by inspection.

Date: Fri Oct 20 19:58:46 2023
Total elapsed time: 0.189 seconds.

tnom = 27
temp = 27
method = modified trap
totiter = 24340
traniter = 24340
tranpoints = 11009
accept = 8650
rejected = 2359
matrix size = 10
fillins = 0
solver = Normal
Matrix Compiler1:      27 opcodes  0.1/[0.0]/0.1
Matrix Compiler2: off  [0.1]/0.1/0.1

